{
  "@context": {
    "@vocab": "https://openminds.om-i.org/props/"
  },
  "@id": "https://openminds.om-i.org/instances/contentTypes/application_vnd.ls-dyna",
  "@type": "https://openminds.om-i.org/types/ContentType",
  "dataType": null,
  "description": null,
  "displayLabel": null,
  "fileExtension": [
    ".d3plot"
  ],
  "name": "application/vnd.ls-dyna",
  "relatedMediaType": null,
  "specification": null,
  "synonym": [
    "LS-DYNA D3PLOT"
  ]
}
